   100
sisl-version=1 cell= -27.87476433 0.00000000 -0.00000000 0.00000000 25.67000000 0.00000000 0.00000000 0.00000000 -10.00000000  nsc= 1 1 1
C   -1.20799362  0.48830787  0.00000108
C   -1.14491251  1.89657378  -0.00000004
C   -2.44736037  -0.16240947  0.00000143
C   -3.65996236  0.59557691  0.00000084
C   -3.60681465  2.04313465  -0.00000138
C   -2.32505857  2.69571235  -0.00000196
C   -4.92537591  -0.04611484  0.00000050
C   -6.12620594  0.69319683  -0.00000010
C   -6.09656917  2.14270710  -0.00000197
C   -4.82940555  2.81138690  -0.00000587
C   -7.39267956  0.02313064  0.00000008
C   -8.56672655  0.75218868  -0.00000019
C   -8.56875674  2.18570874  0.00000036
C   -7.32562310  2.89995212  0.00000035
C   -1.03382946  4.85132900  -0.00000102
C   -0.97900305  6.23330974  -0.00000554
C   -2.28336702  4.14934833  -0.00000550
C   -3.51091218  4.90685153  -0.00001604
C   -3.46383270  6.33981127  -0.00002107
C   -2.18219484  7.01758660  -0.00001689
C   -4.79610231  4.24956558  -0.00001822
C   -6.02738656  5.01501825  -0.00002601
C   -5.98501429  6.45564513  -0.00002187
C   -4.68344290  7.10817239  -0.00002108
C   -7.30798535  4.35005366  -0.00000278
C   -8.55252882  5.12019524  0.00000276
C   -8.54485977  6.56794964  0.00000350
C   -7.22093868  7.24158345  0.00005737
C   -2.11219512  8.42772886  -0.00002606
C   -3.29110586  9.21431295  -0.00003322
C   -4.56808902  8.53683187  -0.00002264
C   -5.76852293  9.31224200  0.00007982
C   -7.02209022  8.64682736  0.00023663
C   -3.25311140  10.64511724  -0.00001822
C   -4.44376465  11.39247141  0.00000975
C   -5.69084261  10.74120261  0.00007039
C   -9.81305744  2.93321902  0.00000110
C   -9.80643013  4.38245830  0.00000802
C   -11.03769073  2.23750165  0.00000343
C   -12.29325073  2.88965291  0.00000794
C   -12.32023233  4.33329620  0.00002180
C   -11.07883326  5.07151477  0.00003167
C   -13.49654950  2.14070733  0.00000141
C   -14.76455709  2.77382717  0.00000228
C   -14.82099617  4.22269467  0.00000690
C   -13.59619513  4.98885158  0.00001723
C   -15.97828564  2.01552673  -0.00000083
C   -17.21649875  2.66832460  -0.00000099
C   -17.28212845  4.07698012  -0.00000022
C   -16.10331717  4.87928450  0.00000340
C   -9.85765846  7.27079450  -0.00004990
C   -10.03771284  8.67768449  -0.00023622
C   -11.10946970  6.50751470  0.00003082
C   -12.40754895  7.17035034  0.00002646
C   -12.50134049  8.60009281  0.00002645
C   -11.28577043  9.36067279  -0.00007487
C   -13.64062252  6.42058172  0.00002243
C   -14.92389721  7.09110057  0.00001629
C   -14.98109600  8.52669596  0.00002296
C   -13.76342372  9.28486003  0.00003007
C   -16.15041219  6.33562513  0.00000722
C   -17.39565155  7.04977549  0.00000199
C   -17.45285656  8.43540640  0.00000335
C   -16.24933629  9.22122790  0.00001099
C   -11.33880442  10.78113610  -0.00005955
C   -12.57618227  11.48072917  -0.00000490
C   -13.80681532  10.71904783  0.00001361
C   -15.07828992  11.40688879  0.00000974
C   -16.27616173  10.63635323  0.00000861
C   -12.64908664  12.91134541  0.00000252
C   -13.89246077  13.57019542  0.00000628
C   -15.09476933  12.83914782  0.00000523
H   -0.27282149  -0.09934710  0.00000101
H   -0.15096549  2.37252250  -0.00000052
H   -2.50513725  -1.26557023  0.00000125
H   -7.41747703  -1.08127654  0.00000009
H   -9.51614012  0.19464060  -0.00000124
H   -0.08693714  4.28723130  0.00000603
H   -0.00463845  6.75426983  -0.00000128
H   -1.12263189  8.92078999  -0.00001679
H   -7.84348242  9.35388164  0.00067454
H   -2.27268623  11.15373574  -0.00002241
H   -4.40016510  12.49621623  -0.00000272
H   -6.62655850  11.32976913  0.00008686
H   -11.05458682  1.13635014  0.00000010
H   -13.44081078  1.03655348  -0.00000379
H   -15.92215419  0.91237186  -0.00000171
H   -18.15172437  2.08054138  -0.00000183
H   -18.27650506  4.55248894  -0.00000045
H   -9.21140161  9.37985806  -0.00068530
H   -18.34518536  6.48908018  -0.00000275
H   -18.43016511  8.95104081  -0.00000025
H   -10.39358892  11.35608044  -0.00007782
H   -17.25213417  11.15610793  0.00000417
H   -11.71151231  13.49568121  -0.00000258
H   -13.92453074  14.67447497  0.00000664
H   -4.95576375  -0.69590465  0.88704604
H   -4.95576375  -0.69590465  -0.88704604
H   -15.65861132  13.16354587  0.88704983
H   -15.65861132  13.16354587  -0.88704983

