   97
sisl-version=1 cell= -27.87476433 0.00000000 -0.00000000 0.00000000 25.67000000 0.00000000 0.00000000 0.00000000 -10.00000000  nsc= 1 1 1
C   -1.05157551  0.88191410  0.00000002
C   -1.13318715  2.29259953  -0.00000006
C   -2.20859242  0.09065405  -0.00000004
C   -3.50320959  0.69968516  -0.00000010
C   -3.58724441  2.14913859  0.00000001
C   -2.38694704  2.96484025  -0.00000006
C   -4.69938369  -0.08383290  -0.00000017
C   -5.98665722  0.50904291  0.00000016
C   -6.08531376  1.95001661  0.00000057
C   -4.88418477  2.76209731  0.00000038
C   -7.21979830  -0.24389411  0.00000016
C   -8.47384055  0.37177697  0.00000068
C   -8.62664379  1.79828705  0.00000154
C   -7.38774007  2.55961274  0.00000148
C   -1.34268755  5.30868504  -0.00000017
C   -1.45877889  6.69442753  -0.00000023
C   -2.48952615  4.43059929  -0.00000005
C   -3.78527550  5.03702185  0.00000022
C   -3.91406750  6.48623047  0.00000025
C   -2.75143573  7.33820157  -0.00000012
C   -4.96279681  4.19857871  0.00000075
C   -6.24793220  4.80478035  0.00000172
C   -6.33800450  6.24462393  0.00000197
C   -5.20163208  7.10029197  0.00000103
C   -7.42489960  3.98770664  0.00000245
C   -8.69307409  4.62257387  0.00000413
C   -8.70644368  6.01541734  0.00000510
C   -7.59047765  6.85145686  0.00000358
C   -2.95302667  8.74210272  -0.00000035
C   -4.25171911  9.35145449  0.00000002
C   -5.44109144  8.52142223  0.00000086
C   -6.79647640  9.12934470  0.00000114
C   -7.98178906  8.24948629  0.00000299
C   -4.39851496  10.77851790  -0.00000015
C   -5.67336805  11.34997493  -0.00000010
C   -6.84261119  10.54527846  0.00000054
C   -9.94411922  2.48682283  0.00000253
C   -9.93445839  3.93491272  0.00000408
C   -11.22961898  1.88605867  0.00000206
C   -12.45367463  2.66024292  0.00000245
C   -12.40200954  4.11393311  0.00000335
C   -11.12680378  4.73949155  0.00000401
C   -13.74449328  2.06771654  0.00000167
C   -14.93985857  2.85012278  0.00000141
C   -14.87279196  4.30454876  0.00000156
C   -13.58700900  4.93287894  0.00000250
C   -16.23083025  2.23047003  0.00000077
C   -17.39419542  3.01062990  0.00000046
C   -17.32732087  4.42286028  0.00000053
C   -16.07980527  5.10502871  0.00000113
C   -9.83440515  6.82721951  0.00000485
C   -9.46947480  8.23256599  0.00000377
C   -11.07211795  6.18601756  0.00000418
C   -12.22380324  7.02087253  0.00000282
C   -12.01700252  8.44976472  0.00000202
C   -10.67009928  9.09004334  0.00000206
C   -13.49760360  6.38101249  0.00000216
C   -14.68205681  7.19159954  0.00000141
C   -14.52555582  8.62448124  0.00000124
C   -13.21568823  9.25231489  0.00000142
C   -15.97967211  6.56667758  0.00000103
C   -17.12800120  7.42647696  0.00000048
C   -17.00021653  8.80989059  0.00000017
C   -15.71128070  9.45476729  0.00000064
C   -10.64207682  10.49722977  0.00000091
C   -11.82052805  11.31076220  0.00000047
C   -13.12092687  10.68490200  0.00000067
C   -14.31388094  11.50247859  0.00000015
C   -15.58780382  10.86505981  0.00000017
C   -11.74032118  12.73639479  -0.00000016
C   -12.90720989  13.52713427  -0.00000044
C   -14.17815518  12.92787773  -0.00000022
H   -0.05804731  0.39920813  0.00000035
H   -0.19435651  2.87164595  -0.00000019
H   -2.13062682  -1.01150639  0.00000012
H   -4.60985952  -1.18612111  -0.00000037
H   -7.16078219  -1.34762314  -0.00000029
H   -9.37300072  -0.27054565  0.00000074
H   -0.32770663  4.87522553  -0.00000038
H   -0.54685516  7.31886882  -0.00000035
H   -2.06876266  9.40709343  -0.00000066
H   -3.49713550  11.41740194  -0.00000038
H   -5.77994120  12.44955768  -0.00000009
H   -7.82383939  11.04892754  0.00000078
H   -11.33285789  0.78512771  0.00000132
H   -13.83747239  0.96557748  0.00000133
H   -16.29884574  1.12770523  0.00000056
H   -18.38305190  2.51818637  -0.00000004
H   -18.27201581  4.99204719  0.00000028
H   -18.14253818  6.99265159  -0.00000000
H   -17.90565642  9.44381852  -0.00000051
H   -9.66699514  11.01417147  0.00000083
H   -16.50223504  11.48689276  -0.00000032
H   -10.74561237  13.21787478  -0.00000036
H   -12.82094530  14.62837450  -0.00000061
H   -14.70412152  13.31064352  -0.88704574
H   -14.70412152  13.31064352  0.88704574

